Version 4
SHEET 1 880 680
WIRE -2352 -1088 -2352 -1120
WIRE -2256 -1072 -2320 -1072
WIRE -2688 -1056 -2928 -1056
WIRE -2560 -1056 -2688 -1056
WIRE -2448 -1056 -2480 -1056
WIRE -2384 -1056 -2448 -1056
WIRE -2288 -1040 -2320 -1040
WIRE -2256 -1040 -2256 -1072
WIRE -2928 -1008 -2928 -1056
WIRE -2688 -1008 -2688 -1056
WIRE -2448 -1008 -2448 -1056
WIRE -2352 -1008 -2352 -1024
WIRE -3216 -960 -3312 -960
WIRE -3056 -960 -3136 -960
WIRE -2992 -960 -3056 -960
WIRE -2608 -960 -2624 -960
WIRE -2608 -944 -2608 -960
WIRE -1760 -944 -1760 -1008
WIRE -3312 -912 -3312 -960
WIRE -3056 -912 -3056 -960
WIRE -2928 -864 -2928 -912
WIRE -2448 -864 -2448 -944
WIRE -2448 -864 -2928 -864
WIRE -2288 -864 -2288 -1040
WIRE -2288 -864 -2448 -864
WIRE -1760 -832 -1760 -864
WIRE -1760 -832 -1808 -832
WIRE -1808 -816 -1808 -832
WIRE -3312 -800 -3312 -832
WIRE -3056 -800 -3056 -832
WIRE -1760 -800 -1760 -832
WIRE -2928 -784 -2928 -864
WIRE -1760 -672 -1760 -720
WIRE -976 -672 -1008 -672
WIRE -864 -672 -896 -672
WIRE -2928 -656 -2928 -704
WIRE -1216 -576 -1248 -576
WIRE -1120 -576 -1152 -576
WIRE -1008 -576 -1008 -672
WIRE -1008 -576 -1040 -576
WIRE -976 -576 -1008 -576
WIRE -864 -560 -864 -672
WIRE -864 -560 -912 -560
WIRE -816 -560 -864 -560
WIRE -976 -544 -1008 -544
WIRE -2688 -528 -2688 -912
WIRE -2480 -480 -2496 -480
WIRE -2368 -480 -2400 -480
WIRE -2432 -352 -2432 -368
WIRE -3328 -336 -3456 -336
WIRE -3184 -336 -3264 -336
WIRE -3024 -336 -3104 -336
WIRE -2880 -336 -3024 -336
WIRE -2784 -336 -2784 -352
WIRE -2496 -336 -2496 -480
WIRE -2496 -336 -2640 -336
WIRE -2464 -336 -2496 -336
WIRE -2368 -320 -2368 -480
WIRE -2368 -320 -2400 -320
WIRE -2240 -320 -2368 -320
WIRE -2688 -304 -2688 -448
WIRE -2464 -304 -2480 -304
WIRE -2640 -272 -2640 -336
WIRE -2640 -272 -2656 -272
WIRE -2480 -272 -2480 -304
WIRE -2432 -256 -2432 -288
WIRE -3024 -240 -3024 -256
WIRE -3456 -208 -3456 -336
WIRE -2880 -208 -2928 -208
WIRE 256 -176 240 -176
WIRE 368 -176 336 -176
WIRE -2928 -160 -2928 -208
WIRE -2784 -160 -2784 -208
WIRE -1808 -112 -1808 -128
WIRE -1552 -112 -1712 -112
WIRE 64 -96 -368 -96
WIRE -3456 -48 -3456 -128
WIRE -2928 -48 -2928 -80
WIRE -1712 -48 -1712 -112
WIRE -1664 -48 -1712 -48
WIRE 160 -48 128 -48
WIRE 240 -48 240 -176
WIRE 256 -48 240 -48
WIRE -1552 -32 -1552 -112
WIRE -1552 -32 -1600 -32
WIRE 368 -32 368 -176
WIRE 368 -32 320 -32
WIRE -1808 -16 -1808 -32
WIRE -1664 -16 -1808 -16
WIRE 256 -16 240 -16
WIRE -368 0 -368 -96
WIRE -304 0 -368 0
WIRE -1808 16 -1808 -16
WIRE -144 16 -240 16
WIRE -48 16 -80 16
WIRE 64 16 64 -96
WIRE 64 16 32 16
WIRE 144 16 64 16
WIRE 240 16 240 -16
WIRE 240 16 144 16
WIRE -304 32 -608 32
WIRE 64 48 64 16
WIRE 144 48 144 16
WIRE -1808 112 -1808 96
WIRE 64 144 64 112
WIRE 144 144 144 128
FLAG -3456 -48 0
FLAG -1760 -1008 +9
FLAG -1760 -672 -9
FLAG -1808 -816 0
FLAG -3024 -240 0
FLAG -2928 -48 0
FLAG -3056 -800 0
FLAG -2608 -944 0
FLAG -2480 -272 0
FLAG -2256 -1040 0
FLAG -2928 -656 -9
FLAG -2784 -160 -9
FLAG -2352 -1120 -9
FLAG -2432 -256 -9
FLAG -2352 -1008 +9
FLAG -2784 -352 +9
FLAG -2432 -368 +9
FLAG -3312 -800 0
FLAG -2240 -320 GTR
FLAG -1632 -64 +9
FLAG -1632 0 0
FLAG -1552 -112 vg
FLAG -1808 -128 +9
FLAG -1808 112 0
FLAG -944 -592 +9
FLAG -944 -528 0
FLAG -1008 -544 vg
FLAG -1248 -576 GTR
FLAG -816 -560 IN
FLAG -608 32 IN
FLAG -272 -16 +9
FLAG -272 48 0
FLAG 64 144 vg
FLAG 144 144 vg
FLAG 288 -64 +9
FLAG 288 0 0
FLAG 128 -48 vg
SYMBOL voltage -3456 -224 R0
SYMATTR InstName V2
SYMATTR Value SINE(0 0.1 440)
SYMBOL voltage -1760 -960 R0
SYMATTR InstName V3
SYMATTR Value 9
SYMBOL voltage -1760 -816 R0
SYMATTR InstName V4
SYMATTR Value 9
SYMBOL LM13700 -2816 -352 R0
SYMATTR InstName U1
SYMBOL res -2704 -544 R0
SYMATTR InstName R1
SYMATTR Value 4.7k
SYMBOL res -3088 -352 R90
WINDOW 0 0 56 VBottom 2
WINDOW 3 32 56 VTop 2
SYMATTR InstName R2
SYMATTR Value 100k
SYMBOL res -3008 -240 R180
WINDOW 0 36 76 Left 2
WINDOW 3 36 40 Left 2
SYMATTR InstName R3
SYMATTR Value 680
SYMBOL res -2912 -64 R180
WINDOW 0 36 76 Left 2
WINDOW 3 36 40 Left 2
SYMATTR InstName R4
SYMATTR Value 680
SYMBOL cap -3264 -352 R90
WINDOW 0 0 32 VBottom 2
WINDOW 3 32 32 VTop 2
SYMATTR InstName C1
SYMATTR Value 470n
SYMBOL pnp -2624 -912 R180
SYMATTR InstName Q1
SYMATTR Value BC857A
SYMBOL pnp -2992 -912 M180
SYMATTR InstName Q2
SYMATTR Value BC857A
SYMBOL res -2464 -1072 R90
WINDOW 0 0 56 VBottom 2
WINDOW 3 32 56 VTop 2
SYMATTR InstName R5
SYMATTR Value 4.7k
SYMBOL res -3120 -976 R90
WINDOW 0 0 56 VBottom 2
WINDOW 3 32 56 VTop 2
SYMATTR InstName R6
SYMATTR Value 91k
SYMBOL res -3040 -816 R180
WINDOW 0 36 76 Left 2
WINDOW 3 36 40 Left 2
SYMATTR InstName R7
SYMATTR Value 2k7
SYMBOL res -2912 -688 R180
WINDOW 0 36 76 Left 2
WINDOW 3 36 40 Left 2
SYMATTR InstName R8
SYMATTR Value 470k
SYMBOL OpAmps/LT1058 -2352 -992 R180
SYMATTR InstName U2
SYMBOL cap -2464 -1008 R0
SYMATTR InstName C2
SYMATTR Value 4.7n
SYMBOL OpAmps/LT1058 -2432 -384 R0
SYMATTR InstName U3
SYMBOL res -2384 -496 R90
WINDOW 0 0 56 VBottom 2
WINDOW 3 32 56 VTop 2
SYMATTR InstName R9
SYMATTR Value 22k
SYMBOL voltage -3312 -928 R0
SYMATTR InstName V5
SYMATTR Value PULSE(0 3.3 400m 10m 60m 30m 100m 1)
SYMBOL OpAmps/LT1058 -1632 -96 R0
SYMATTR InstName U4
SYMBOL res -1824 -128 R0
SYMATTR InstName R10
SYMATTR Value 470k
SYMBOL res -1824 0 R0
SYMATTR InstName R11
SYMATTR Value 470k
SYMBOL OpAmps/LT1058 -944 -624 R0
SYMATTR InstName U5
SYMBOL res -1024 -592 R90
WINDOW 0 0 56 VBottom 2
WINDOW 3 32 56 VTop 2
SYMATTR InstName R12
SYMATTR Value 100k
SYMBOL res -880 -688 R90
WINDOW 0 0 56 VBottom 2
WINDOW 3 32 56 VTop 2
SYMATTR InstName R13
SYMATTR Value 330k
SYMBOL cap -1152 -592 R90
WINDOW 0 0 32 VBottom 2
WINDOW 3 32 32 VTop 2
SYMATTR InstName C3
SYMATTR Value 1n
SYMBOL res 48 0 R90
WINDOW 0 0 56 VBottom 2
WINDOW 3 32 56 VTop 2
SYMATTR InstName R15
SYMATTR Value 820
SYMBOL OpAmps/LT1058 -272 -48 R0
SYMATTR InstName U7
SYMBOL diode -144 32 R270
WINDOW 0 32 32 VTop 2
WINDOW 3 0 32 VBottom 2
SYMATTR InstName D2
SYMATTR Value 1N4148
SYMBOL cap 48 48 R0
SYMATTR InstName C4
SYMATTR Value 1µ
SYMBOL res 128 32 R0
SYMATTR InstName R16
SYMATTR Value 12k
SYMBOL OpAmps/LT1058 288 -96 R0
SYMATTR InstName U6
SYMBOL res 256 -64 R90
WINDOW 0 0 56 VBottom 2
WINDOW 3 32 56 VTop 2
SYMATTR InstName R14
SYMATTR Value 100k
SYMBOL res 352 -192 R90
WINDOW 0 0 56 VBottom 2
WINDOW 3 32 56 VTop 2
SYMATTR InstName R17
SYMATTR Value 330k
TEXT -2040 -416 Left 2 !.tran 0 500m 400m
TEXT -2040 -440 Left 2 !.lib lm13700.sub
TEXT -3680 -1200 Left 2 ;Ignore this it's just a convenient way to simulate a guitar signal
TEXT -976 -744 Left 2 ;Input stage couples signal to vcc/2 with positive gain of ~2
RECTANGLE Normal -3684 -1172 -2192 0 2
